Version 4
SHEET 1 1644 680
WIRE 912 320 832 320
WIRE 912 336 848 336
WIRE 1024 336 1008 336
WIRE 1200 336 1120 336
WIRE 912 352 832 352
FLAG 1200 336 Out
FLAG 832 320 A
FLAG 832 352 C
FLAG 848 336 B
SYMBOL inversor 1040 336 R0
SYMATTR InstName X2
SYMATTR SpiceLine VDD={VDD} L={L} LD={LD} WN={WN} WPFACT={WPFACT}
SYMBOL nand3 960 272 R0
SYMATTR InstName X1
SYMATTR SpiceLine VDD={VDD} L={L} LD={LD} WN={WN} WPFACT={WPFACT}
TEXT 712 208 Left 2 !.include "TSMC180.lib"
