Version 4
SHEET 1 1644 680
WIRE 912 320 832 320
WIRE 912 336 816 336
WIRE 1024 352 1008 352
WIRE 1200 352 1120 352
WIRE 912 368 816 368
WIRE 912 384 832 384
FLAG 1200 352 Out
FLAG 832 320 A
FLAG 816 336 B
FLAG 816 368 C
FLAG 832 384 D
SYMBOL inversor 1040 352 R0
SYMATTR InstName X2
SYMATTR SpiceLine VDD={VDD} L={L} LD={LD} WN={WN} WPFACT={WPFACT}
SYMBOL nand4 960 272 R0
SYMATTR InstName X1
SYMATTR SpiceLine VDD={VDD} L={L} LD={LD} WN={WN} WPFACT={WPFACT}
TEXT 712 208 Left 2 !.include "TSMC180.lib"
