Version 4
SHEET 1 880 680
SYMBOL pfd2 128 176 R0
SYMATTR InstName X1
