Version 4
SHEET 1 2272 2056
WIRE 2000 960 1248 960
WIRE 544 1056 496 1056
WIRE 720 1056 640 1056
WIRE 1568 1120 1568 1072
WIRE 1248 1200 1248 960
WIRE 1344 1200 1248 1200
WIRE 1488 1200 1440 1200
WIRE 1744 1200 1648 1200
WIRE 816 1264 816 1216
WIRE 1840 1296 1840 1136
WIRE 1872 1296 1840 1296
WIRE 2000 1312 2000 960
WIRE 2000 1312 1952 1312
WIRE 2224 1312 2000 1312
WIRE 1568 1328 1568 1280
WIRE 1568 1328 1296 1328
WIRE 1744 1328 1744 1200
WIRE 1872 1328 1744 1328
WIRE 592 1344 496 1344
WIRE 736 1344 688 1344
WIRE 992 1344 896 1344
WIRE 1568 1376 1568 1328
WIRE 2000 1392 2000 1312
WIRE 2032 1392 2000 1392
WIRE 2224 1392 2128 1392
WIRE 1072 1440 1072 1280
WIRE 1104 1440 1072 1440
WIRE 1280 1456 1184 1456
WIRE 1344 1456 1280 1456
WIRE 1488 1456 1440 1456
WIRE 1744 1456 1744 1328
WIRE 1744 1456 1648 1456
WIRE 816 1472 816 1424
WIRE 816 1472 576 1472
WIRE 992 1472 992 1344
WIRE 1104 1472 992 1472
WIRE 816 1520 816 1472
WIRE 1568 1584 1568 1536
WIRE 592 1600 496 1600
WIRE 736 1600 688 1600
WIRE 992 1600 992 1472
WIRE 992 1600 896 1600
WIRE 816 1728 816 1680
WIRE 496 1824 496 1600
WIRE 1280 1824 1280 1456
WIRE 1280 1824 496 1824
FLAG 576 1472 nCLK
FLAG 816 1216 CLK
FLAG 816 1728 CLK
FLAG 496 1344 D
FLAG 1296 1328 nCLK
FLAG 1568 1072 CLK
FLAG 1568 1584 CLK
FLAG 2224 1312 Q
FLAG 1072 1280 R
FLAG 1840 1136 R
FLAG 720 1056 nCLK
FLAG 496 1056 CLK
FLAG 2224 1392 nQ
SYMBOL tgate 784 1344 R0
SYMATTR InstName X3
SYMATTR SpiceLine VDD={VDD} L={L} LD={LD} W={WN}
SYMBOL tgate 784 1600 R0
SYMATTR InstName X4
SYMATTR SpiceLine VDD={VDD} L={L} LD={LD} W={WN}
SYMBOL tgate 1536 1200 R0
SYMATTR InstName X8
SYMATTR SpiceLine VDD={VDD} L={L} LD={LD} W={WN}
SYMBOL tgate 1536 1456 R0
SYMATTR InstName X9
SYMATTR SpiceLine VDD={VDD} L={L} LD={LD} W={WN}
SYMBOL inversor 608 1344 R0
WINDOW 0 27 -39 Left 2
SYMATTR InstName X1
SYMATTR SpiceLine VDD={VDD} L={L} LD={LD} WN={WN} WPFACT={WPFACT}
SYMBOL inversor 608 1600 R0
WINDOW 0 20 -37 Left 2
SYMATTR InstName X2
SYMATTR SpiceLine VDD={VDD} L={L} LD={LD} WN={WN} WPFACT={WPFACT}
SYMBOL inversor 1360 1200 R0
WINDOW 0 25 -35 Left 2
SYMATTR InstName X6
SYMATTR SpiceLine VDD={VDD} L={L} LD={LD} WN={WN} WPFACT={WPFACT}
SYMBOL inversor 1360 1456 R0
WINDOW 0 26 -37 Left 2
SYMATTR InstName X7
SYMATTR SpiceLine VDD={VDD} L={L} LD={LD} WN={WN} WPFACT={WPFACT}
SYMBOL nor 1136 1392 R0
WINDOW 0 11 23 Left 2
SYMATTR InstName X5
SYMATTR SpiceLine VDD={VDD} L={L} LD={LD} WN={WN} WPFACT={WPFACT}
SYMBOL nor 1904 1248 R0
WINDOW 0 6 18 Left 2
SYMATTR InstName X10
SYMATTR SpiceLine VDD={VDD} L={L} LD={LD} WN={WN} WPFACT={WPFACT}
SYMBOL inversor 560 1056 R0
WINDOW 0 20 -37 Left 2
SYMATTR InstName X11
SYMATTR SpiceLine VDD={VDD} L={L} LD={LD} WN={WN} WPFACT={WPFACT}
SYMBOL inversor 2048 1392 R0
WINDOW 0 26 -37 Left 2
SYMATTR InstName X12
SYMATTR SpiceLine VDD={VDD} L={L} LD={LD} WN={WN} WPFACT={WPFACT}
