Version 4
SHEET 1 2200 1356
WIRE 992 160 752 160
WIRE 992 192 752 192
WIRE 992 240 864 240
WIRE 864 272 864 240
WIRE 992 272 864 272
WIRE 1248 288 1136 288
WIRE 864 304 864 272
WIRE 992 304 864 304
WIRE 864 336 864 304
WIRE 912 336 864 336
WIRE 992 336 912 336
WIRE 208 352 208 304
WIRE 912 400 912 336
WIRE 336 432 336 384
WIRE 208 448 208 432
WIRE 336 528 336 512
WIRE 448 560 448 512
WIRE 448 656 448 640
FLAG 336 528 0
FLAG 752 160 clkIn
FLAG 752 192 RST
FLAG 336 384 clkIn
FLAG 448 656 0
FLAG 448 512 RST
FLAG 208 448 0
FLAG 208 304 VDD
FLAG 912 400 0
FLAG 832 272 VDD
SYMBOL voltage 336 416 R0
WINDOW 3 -601 105 Left 2
WINDOW 123 0 0 Left 0
WINDOW 39 0 0 Left 0
SYMATTR Value PULSE(0 1.8 0 10p 10p {1/(2*FREQ)} {1/FREQ})
SYMATTR InstName V1
SYMBOL voltage 448 544 R0
WINDOW 3 -436 89 Left 2
WINDOW 123 0 0 Left 0
WINDOW 39 0 0 Left 0
SYMATTR Value PULSE(0 1.8 0 10p 10p 1n 2n 1)
SYMATTR InstName V2
SYMBOL voltage 208 336 R0
WINDOW 3 27 85 Left 2
WINDOW 123 0 0 Left 0
WINDOW 39 0 0 Left 0
SYMATTR Value 1.8
SYMATTR InstName VDD
SYMBOL freq_divider_2n 1040 176 R0
SYMATTR InstName X2
TEXT 496 32 Left 2 !.include "TSMC180.lib"
TEXT 496 64 Left 2 !.tran 0 500n 0 100p
TEXT 392 168 Left 2 !.param FREQ 200e6
