Version 4
SHEET 1 2200 1356
WIRE 1264 112 1200 112
WIRE 1200 160 1200 112
WIRE 1200 160 1152 160
WIRE 1264 176 1216 176
WIRE 1216 192 1216 176
WIRE 1216 192 1152 192
WIRE 976 208 896 208
WIRE 1520 208 1408 208
WIRE 1216 224 1152 224
WIRE 1216 240 1216 224
WIRE 1264 240 1216 240
WIRE 736 256 736 208
WIRE 896 256 896 208
WIRE 1200 256 1152 256
WIRE 1200 304 1200 256
WIRE 1264 304 1200 304
WIRE 736 368 736 336
WIRE 896 368 896 336
WIRE 1328 368 1328 304
WIRE 1328 368 1296 368
WIRE 1360 368 1360 288
WIRE 1408 368 1360 368
WIRE 1328 400 1328 368
WIRE 1360 400 1360 368
WIRE 1408 400 1408 368
FLAG 896 368 0
FLAG 1328 400 P1
FLAG 1360 400 P0
FLAG 1408 400 0
FLAG 1296 368 VDD
FLAG 736 368 0
FLAG 736 208 VDD
FLAG 1520 208 clkOut
SYMBOL voltage 896 240 R0
WINDOW 3 -100 171 Left 2
WINDOW 123 0 0 Left 0
WINDOW 39 0 0 Left 0
SYMATTR Value PULSE(0 1.8 0 10p 10p 500p 1n)
SYMATTR InstName V1
SYMBOL freq_divider_power_2 1024 176 R0
SYMATTR InstName X1
SYMBOL inverting_mux_4 1312 176 R0
SYMATTR InstName X2
SYMBOL voltage 736 240 R0
WINDOW 3 32 101 Left 2
WINDOW 123 0 0 Left 0
WINDOW 39 0 0 Left 0
SYMATTR Value 1.8
SYMATTR InstName V2
TEXT 808 72 Left 2 !.include "TSMC180.lib"
TEXT 808 104 Left 2 !.tran 0 1u 0 100p
