Version 4
SHEET 1 2200 1356
WIRE 1232 160 1152 160
WIRE 1232 192 1152 192
WIRE 1232 224 1152 224
WIRE 1232 256 1152 256
WIRE 976 272 752 272
WIRE 1232 288 1152 288
WIRE 752 320 752 272
WIRE 1232 320 1152 320
WIRE 1232 352 1152 352
WIRE 1232 384 1152 384
WIRE 752 416 752 400
FLAG 1232 160 div2
FLAG 1232 192 div4
FLAG 1232 224 div8
FLAG 1232 256 div16
FLAG 1232 288 div32
FLAG 1232 320 div64
FLAG 1232 352 div128
FLAG 1232 384 div256
FLAG 752 416 0
SYMBOL voltage 752 304 R0
WINDOW 3 -162 155 Left 2
WINDOW 123 0 0 Left 0
WINDOW 39 0 0 Left 0
SYMATTR Value PULSE(0 1.8 0 10p 10p 500p 1n)
SYMATTR InstName V1
SYMBOL freq_divider_power_2 1024 176 R0
SYMATTR InstName X1
TEXT 496 32 Left 2 !.include "TSMC180.lib"
TEXT 496 64 Left 2 !.tran 0 1u 0 100p
