Version 4
SHEET 1 6384 2884
WIRE -160 1184 -368 1184
WIRE 128 1200 -16 1200
WIRE 208 1200 128 1200
WIRE 432 1200 352 1200
WIRE 512 1200 432 1200
WIRE 736 1200 688 1200
WIRE -160 1216 -224 1216
WIRE -592 1296 -704 1296
WIRE 352 1296 256 1296
WIRE 736 1296 736 1200
WIRE 736 1296 352 1296
WIRE 880 1296 736 1296
WIRE -224 1312 -224 1216
WIRE -592 1328 -704 1328
WIRE 352 1328 256 1328
WIRE -592 1376 -640 1376
WIRE 352 1376 256 1376
WIRE 400 1376 352 1376
WIRE 880 1376 832 1376
WIRE -1072 1392 -1072 1360
WIRE -944 1392 -944 1360
WIRE -832 1392 -832 1360
WIRE -592 1408 -640 1408
WIRE 352 1408 352 1376
WIRE 352 1408 256 1408
WIRE 880 1408 832 1408
WIRE -368 1424 -368 1184
WIRE -368 1424 -448 1424
WIRE -224 1424 -224 1312
WIRE 112 1424 -224 1424
WIRE 1072 1424 1024 1424
WIRE -640 1440 -640 1408
WIRE -592 1440 -640 1440
WIRE 352 1440 256 1440
WIRE 832 1440 832 1408
WIRE 880 1440 832 1440
WIRE -640 1472 -640 1440
WIRE -592 1472 -640 1472
WIRE 352 1472 352 1440
WIRE 352 1472 256 1472
WIRE 832 1472 832 1440
WIRE 880 1472 832 1472
WIRE -1072 1504 -1072 1472
WIRE -944 1504 -944 1472
WIRE -832 1504 -832 1472
WIRE -640 1504 -640 1472
WIRE 352 1504 352 1472
WIRE 832 1504 832 1472
FLAG -1072 1504 0
FLAG -1072 1360 Vdd
FLAG -832 1504 0
FLAG 128 1200 Vpd
FLAG 432 1200 VIN
FLAG 352 1328 RST
FLAG -832 1360 clkIn
FLAG -224 1312 dclock
FLAG 352 1504 0
FLAG -944 1504 0
FLAG -944 1360 RST
FLAG -704 1296 clkIn
FLAG 1072 1424 clkOut
FLAG 352 1296 vcoOut
FLAG -704 1328 RST
FLAG -640 1504 0
FLAG -640 1376 VDD
FLAG 832 1504 0
FLAG 832 1376 VDD
FLAG 400 1376 VDD
SYMBOL voltage -1072 1376 R0
WINDOW 123 0 0 Left 0
WINDOW 39 0 0 Left 0
SYMATTR InstName V1
SYMATTR Value 1.8
SYMBOL freq_divider_2n 208 1312 M0
SYMATTR InstName X11
SYMATTR SpiceLine VDD=1.8 L={FD_L} LD={LD} WN={FD_WN} WPFACT={WPFACT}
SYMBOL vco7 560 1200 R0
SYMATTR InstName X1
SYMATTR SpiceLine VDD=1.8, LD={LD}, L_INV={VCO_L_INV}, WN_INV={VCO_WN_INV}, WPFACT_INV={WPFACT}, L_CS={VCO_L_CS}, WN_CS={VCO_WN_CS}, WPFACT_CS={WPFACT}, WIDE_FACT_CS={VCO_WIDE_FACT_CS}, R1_CS={VCO_R1_CS}, R2_CS={VCO_R2_CS}
SYMBOL voltage -944 1376 R0
WINDOW 3 -436 89 Invisible 2
WINDOW 123 0 0 Left 0
WINDOW 39 0 0 Left 0
SYMATTR Value PULSE(0 1.8 0 10p 10p 1n 2n 1)
SYMATTR InstName V2
SYMBOL pfd_and_tri_state -112 1200 R0
SYMATTR InstName X2
SYMATTR SpiceLine VDD=1.8 LD={LD} PFD_L={PFD_L} PFD_WN={PFD_WN} TS_L={PFD_TS_L} TS_WN={PFD_TS_WN} WPFACT={WPFACT}
SYMBOL pfd_loop_filter 256 1200 R0
SYMATTR InstName X3
SYMATTR SpiceLine R1={F_R1} R2={F_R2} C={F_C}
SYMBOL voltage -832 1376 R0
WINDOW 3 186 312 Invisible 2
WINDOW 123 0 0 Left 0
WINDOW 39 0 0 Left 0
SYMATTR Value PULSE(0 1.8 0 10p 10p {1/(2*FREQ)} {1/FREQ})
SYMATTR InstName V3
SYMBOL freq_divider_2n -544 1312 R0
SYMATTR InstName X5
SYMATTR SpiceLine VDD=1.8 L={FD_L} LD={LD} WN={FD_WN} WPFACT={WPFACT}
SYMBOL freq_divider_2n 928 1312 R0
SYMATTR InstName X4
SYMATTR SpiceLine VDD=1.8 L={FD_L} LD={LD} WN={FD_WN} WPFACT={WPFACT}
TEXT -1096 1160 Left 2 !.include "TSMC180.lib"
TEXT -1096 1184 Left 2 !.param LD = 0.48u
TEXT -1096 1256 Left 2 !.tran 0 10u 0 100p
TEXT -1096 1232 Left 2 !.param FREQ = 100e6
TEXT -1096 1208 Left 2 !.param WPFACT = 1.5
TEXT -168 960 Left 2 ;PFD
TEXT 200 960 Left 2 ;Filtro de Lazo
TEXT 504 960 Left 2 ;VCO
TEXT 104 1560 Left 2 ;Divisor de frecuencias
TEXT 200 984 Left 2 !.param F_R1 = 2.56k
TEXT 200 1008 Left 2 !.param F_R2 = 20k
TEXT 200 1032 Left 2 !.param F_C = 10p
TEXT 504 984 Left 2 !.param VCO_L_INV = 0.18u
TEXT 504 1008 Left 2 !.param VCO_WN_INV = 0.57u
TEXT 504 1032 Left 2 !.param VCO_L_CS = 0.9u
TEXT 504 1056 Left 2 !.param VCO_WN_CS = 4u
TEXT 504 1080 Left 2 !.param VCO_WIDE_FACT_CS = 3
TEXT 504 1104 Left 2 !.param VCO_R1_CS = 20k
TEXT 504 1128 Left 2 !.param VCO_R2_CS =86k
TEXT -168 984 Left 2 !.param PFD_L = 0.18u
TEXT -168 1008 Left 2 !.param PFD_WN = 0.42u
TEXT -168 1032 Left 2 !.param PFD_TS_L = 0.9u
TEXT -168 1056 Left 2 !.param PFD_TS_WN = 2.1u
TEXT 104 1592 Left 2 !.param FD_L = 0.18u
TEXT 104 1616 Left 2 !.param FD_WN = 0.42u
TEXT -616 1560 Left 2 ;Prescaler /2
TEXT 856 1560 Left 2 ;Postscaler /2
