Version 4
SHEET 1 2908 1724
WIRE 928 768 752 768
WIRE 752 800 752 768
WIRE 752 800 704 800
WIRE 1072 800 992 800
WIRE 752 832 752 800
WIRE 784 832 752 832
WIRE 928 832 880 832
WIRE 1520 848 1424 848
WIRE 1680 848 1584 848
WIRE 1840 848 1744 848
WIRE 2000 848 1904 848
WIRE 960 896 960 864
WIRE 960 896 704 896
WIRE 1424 896 1424 848
WIRE 1440 896 1424 896
WIRE 1552 896 1552 816
WIRE 1552 896 1504 896
WIRE 1584 896 1584 848
WIRE 1600 896 1584 896
WIRE 1712 896 1712 816
WIRE 1712 896 1664 896
WIRE 1744 896 1744 848
WIRE 1760 896 1744 896
WIRE 1872 896 1872 816
WIRE 1872 896 1824 896
WIRE 1904 896 1904 848
WIRE 1920 896 1904 896
WIRE 2032 896 2032 816
WIRE 2032 896 1984 896
WIRE 1520 928 1520 848
WIRE 1520 928 1504 928
WIRE 1680 928 1680 848
WIRE 1680 928 1664 928
WIRE 1840 928 1840 848
WIRE 1840 928 1824 928
WIRE 2000 928 2000 848
WIRE 2000 928 1984 928
WIRE 1440 944 1376 944
WIRE 1520 944 1520 928
WIRE 1600 944 1520 944
WIRE 1680 944 1680 928
WIRE 1760 944 1680 944
WIRE 1840 944 1840 928
WIRE 1920 944 1840 944
WIRE 928 976 752 976
WIRE 752 1008 752 976
WIRE 752 1008 704 1008
WIRE 1040 1008 992 1008
WIRE 752 1040 752 1008
WIRE 784 1040 752 1040
WIRE 928 1040 880 1040
WIRE 1072 1088 1072 800
WIRE 1120 1088 1072 1088
WIRE 1312 1088 1280 1088
WIRE 960 1104 960 1072
WIRE 960 1104 704 1104
WIRE 1040 1104 1040 1008
WIRE 1120 1104 1040 1104
WIRE 1424 1104 1376 1104
WIRE 1472 1104 1472 976
WIRE 1472 1104 1424 1104
WIRE 1632 1104 1632 976
WIRE 1632 1104 1472 1104
WIRE 1792 1104 1792 976
WIRE 1792 1104 1632 1104
WIRE 1952 1104 1952 976
WIRE 1952 1104 1792 1104
WIRE 1312 1120 1200 1120
WIRE 1120 1136 1040 1136
WIRE 1120 1152 1072 1152
WIRE 928 1184 752 1184
WIRE 1600 1200 1472 1200
WIRE 752 1216 752 1184
WIRE 752 1216 704 1216
WIRE 1040 1216 1040 1136
WIRE 1040 1216 992 1216
WIRE 752 1248 752 1216
WIRE 784 1248 752 1248
WIRE 928 1248 880 1248
WIRE 1472 1248 1472 1200
WIRE 1504 1248 1472 1248
WIRE 1696 1248 1568 1248
WIRE 1600 1280 1600 1200
WIRE 1600 1280 1568 1280
WIRE 1424 1296 1424 1104
WIRE 1504 1296 1424 1296
WIRE 960 1312 960 1280
WIRE 960 1312 704 1312
WIRE 1536 1360 1536 1328
WIRE 928 1392 752 1392
WIRE 752 1424 752 1392
WIRE 752 1424 704 1424
WIRE 1072 1424 1072 1152
WIRE 1072 1424 992 1424
WIRE 752 1456 752 1424
WIRE 784 1456 752 1456
WIRE 928 1456 880 1456
WIRE 960 1520 960 1488
WIRE 960 1520 704 1520
FLAG 1376 944 clkIn
FLAG 1552 816 Q0
FLAG 1712 816 Q1
FLAG 1872 816 Q2
FLAG 2032 816 Q3
FLAG 1280 1088 RST
FLAG 704 896 P0
FLAG 704 800 Q0
FLAG 704 1104 P1
FLAG 704 1008 Q1
FLAG 704 1312 P2
FLAG 704 1216 Q2
FLAG 704 1520 P3
FLAG 704 1424 Q3
FLAG 1696 1248 clkOut
FLAG 1536 1360 RST
SYMBOL ffd_arst 1472 928 R0
SYMATTR InstName X1
SYMATTR SpiceLine VDD={VDD} L={L} LD={LD} WN={WN} WPFACT=1.5
SYMBOL ffd_arst 1632 928 R0
SYMATTR InstName X2
SYMATTR SpiceLine VDD={VDD} L={L} LD={LD} WN={WN} WPFACT=1.5
SYMBOL ffd_arst 1792 928 R0
SYMATTR InstName X3
SYMATTR SpiceLine VDD={VDD} L={L} LD={LD} WN={WN} WPFACT=1.5
SYMBOL ffd_arst 1952 928 R0
SYMATTR InstName X4
SYMATTR SpiceLine VDD={VDD} L={L} LD={LD} WN={WN} WPFACT=1.5
SYMBOL or 1344 1040 R0
WINDOW 0 -30 -2 Left 2
SYMATTR InstName X5
SYMATTR SpiceLine VDD={VDD} L={L} LD={LD} WN={WN} WPFACT=1.5
SYMBOL and4 1168 1040 R0
SYMATTR InstName X6
SYMATTR SpiceLine VDD={VDD} L={L} LD={LD} WN={WN} WPFACT=1.5
SYMBOL mux2 976 768 R0
WINDOW 0 -6 -53 Left 2
SYMATTR InstName X7
SYMATTR SpiceLine VDD={VDD} L={L} LD={LD} WN={WN} WPFACT=1.5
SYMBOL inversor 800 832 R0
WINDOW 0 45 -28 Left 2
SYMATTR InstName X8
SYMATTR SpiceLine VDD={VDD} L={L} LD={LD} WN={WN} WPFACT=1.5
SYMBOL mux2 976 976 R0
WINDOW 0 -6 -53 Left 2
SYMATTR InstName X9
SYMATTR SpiceLine VDD={VDD} L={L} LD={LD} WN={WN} WPFACT=1.5
SYMBOL inversor 800 1040 R0
WINDOW 0 45 -28 Left 2
SYMATTR InstName X10
SYMATTR SpiceLine VDD={VDD} L={L} LD={LD} WN={WN} WPFACT=1.5
SYMBOL mux2 976 1184 R0
WINDOW 0 -6 -53 Left 2
SYMATTR InstName X11
SYMATTR SpiceLine VDD={VDD} L={L} LD={LD} WN={WN} WPFACT=1.5
SYMBOL inversor 800 1248 R0
WINDOW 0 45 -28 Left 2
SYMATTR InstName X12
SYMATTR SpiceLine VDD={VDD} L={L} LD={LD} WN={WN} WPFACT=1.5
SYMBOL mux2 976 1392 R0
WINDOW 0 -6 -53 Left 2
SYMATTR InstName X13
SYMATTR SpiceLine VDD={VDD} L={L} LD={LD} WN={WN} WPFACT=1.5
SYMBOL inversor 800 1456 R0
WINDOW 0 45 -28 Left 2
SYMATTR InstName X14
SYMATTR SpiceLine VDD={VDD} L={L} LD={LD} WN={WN} WPFACT=1.5
SYMBOL ffd_arst 1536 1280 R0
SYMATTR InstName X16
SYMATTR SpiceLine VDD={VDD} L={L} LD={LD} WN={WN} WPFACT=1.5
TEXT 1176 728 Left 2 !.include "TSMC180.lib"
