Version 4
SHEET 1 2200 680
WIRE 992 208 896 208
WIRE 1152 208 1056 208
WIRE 1312 208 1216 208
WIRE 1472 208 1376 208
WIRE 1632 208 1536 208
WIRE 1792 208 1696 208
WIRE 1952 208 1856 208
WIRE 2112 208 2016 208
WIRE 896 256 896 208
WIRE 912 256 896 256
WIRE 1024 256 1024 176
WIRE 1024 256 976 256
WIRE 1056 256 1056 208
WIRE 1072 256 1056 256
WIRE 1184 256 1184 176
WIRE 1184 256 1136 256
WIRE 1216 256 1216 208
WIRE 1232 256 1216 256
WIRE 1344 256 1344 176
WIRE 1344 256 1296 256
WIRE 1376 256 1376 208
WIRE 1392 256 1376 256
WIRE 1504 256 1504 176
WIRE 1504 256 1456 256
WIRE 1536 256 1536 208
WIRE 1552 256 1536 256
WIRE 1664 256 1664 176
WIRE 1664 256 1616 256
WIRE 1696 256 1696 208
WIRE 1712 256 1696 256
WIRE 1824 256 1824 176
WIRE 1824 256 1776 256
WIRE 1856 256 1856 208
WIRE 1872 256 1856 256
WIRE 1984 256 1984 176
WIRE 1984 256 1936 256
WIRE 2016 256 2016 208
WIRE 2032 256 2016 256
WIRE 2144 256 2144 176
WIRE 2144 256 2096 256
WIRE 992 288 992 208
WIRE 992 288 976 288
WIRE 1152 288 1152 208
WIRE 1152 288 1136 288
WIRE 1312 288 1312 208
WIRE 1312 288 1296 288
WIRE 1472 288 1472 208
WIRE 1472 288 1456 288
WIRE 1632 288 1632 208
WIRE 1632 288 1616 288
WIRE 1792 288 1792 208
WIRE 1792 288 1776 288
WIRE 1952 288 1952 208
WIRE 1952 288 1936 288
WIRE 2112 288 2112 208
WIRE 2112 288 2096 288
WIRE 912 304 848 304
WIRE 992 304 992 288
WIRE 1072 304 992 304
WIRE 1152 304 1152 288
WIRE 1232 304 1152 304
WIRE 1312 304 1312 288
WIRE 1392 304 1312 304
WIRE 1472 304 1472 288
WIRE 1552 304 1472 304
WIRE 1632 304 1632 288
WIRE 1712 304 1632 304
WIRE 1792 304 1792 288
WIRE 1872 304 1792 304
WIRE 1952 304 1952 288
WIRE 2032 304 1952 304
WIRE 944 384 944 336
WIRE 1104 384 1104 336
WIRE 1264 384 1264 336
WIRE 1424 384 1424 336
WIRE 1584 384 1584 336
WIRE 1744 384 1744 336
WIRE 1904 384 1904 336
WIRE 2064 384 2064 336
FLAG 848 304 clkIn
FLAG 944 384 0
FLAG 1104 384 0
FLAG 1264 384 0
FLAG 1424 384 0
FLAG 1584 384 0
FLAG 1744 384 0
FLAG 1904 384 0
FLAG 2064 384 0
FLAG 1024 176 div2
FLAG 1184 176 div4
FLAG 1344 176 div8
FLAG 1504 176 div16
FLAG 1664 176 div32
FLAG 1824 176 div64
FLAG 1984 176 div128
FLAG 2144 176 div256
SYMBOL ffd_arst 944 288 R0
SYMATTR InstName X1
SYMATTR SpiceLine VDD={VDD} L={L} LD={LD} WN={WN} WPFACT=1.5
SYMBOL ffd_arst 1104 288 R0
SYMATTR InstName X2
SYMATTR SpiceLine VDD={VDD} L={L} LD={LD} WN={WN} WPFACT=1.5
SYMBOL ffd_arst 1264 288 R0
SYMATTR InstName X3
SYMATTR SpiceLine VDD={VDD} L={L} LD={LD} WN={WN} WPFACT=1.5
SYMBOL ffd_arst 1424 288 R0
SYMATTR InstName X4
SYMATTR SpiceLine VDD={VDD} L={L} LD={LD} WN={WN} WPFACT=1.5
SYMBOL ffd_arst 1584 288 R0
SYMATTR InstName X5
SYMATTR SpiceLine VDD={VDD} L={L} LD={LD} WN={WN} WPFACT=1.5
SYMBOL ffd_arst 1744 288 R0
SYMATTR InstName X6
SYMATTR SpiceLine VDD={VDD} L={L} LD={LD} WN={WN} WPFACT=1.5
SYMBOL ffd_arst 1904 288 R0
SYMATTR InstName X7
SYMATTR SpiceLine VDD={VDD} L={L} LD={LD} WN={WN} WPFACT=1.5
SYMBOL ffd_arst 2064 288 R0
SYMATTR InstName X8
SYMATTR SpiceLine VDD={VDD} L={L} LD={LD} WN={WN} WPFACT=1.5
TEXT 320 -72 Left 2 !.include "TSMC180.lib"
