Version 4
SHEET 1 2908 1612
WIRE 992 208 896 208
WIRE 1152 208 1056 208
WIRE 1312 208 1216 208
WIRE 1472 208 1376 208
WIRE 896 256 896 208
WIRE 912 256 896 256
WIRE 1024 256 1024 176
WIRE 1024 256 976 256
WIRE 1056 256 1056 208
WIRE 1072 256 1056 256
WIRE 1184 256 1184 176
WIRE 1184 256 1136 256
WIRE 1216 256 1216 208
WIRE 1232 256 1216 256
WIRE 1344 256 1344 176
WIRE 1344 256 1296 256
WIRE 1376 256 1376 208
WIRE 1392 256 1376 256
WIRE 1504 256 1504 176
WIRE 1504 256 1456 256
WIRE 992 288 992 208
WIRE 992 288 976 288
WIRE 1152 288 1152 208
WIRE 1152 288 1136 288
WIRE 1312 288 1312 208
WIRE 1312 288 1296 288
WIRE 1472 288 1472 208
WIRE 1472 288 1456 288
WIRE 912 304 848 304
WIRE 992 304 992 288
WIRE 1072 304 992 304
WIRE 1152 304 1152 288
WIRE 1232 304 1152 304
WIRE 1312 304 1312 288
WIRE 1392 304 1312 304
WIRE 944 384 944 336
WIRE 944 384 848 384
WIRE 1104 384 1104 336
WIRE 1104 384 944 384
WIRE 1264 384 1264 336
WIRE 1264 384 1104 384
WIRE 1424 384 1424 336
WIRE 1424 384 1264 384
WIRE 2080 464 1920 464
WIRE 1920 560 1920 464
WIRE 1952 560 1920 560
WIRE 2176 560 2016 560
WIRE 2080 592 2080 464
WIRE 2080 592 2016 592
WIRE 1952 608 1856 608
WIRE 1040 624 960 624
WIRE 1264 640 1136 640
WIRE 1040 656 960 656
WIRE 1984 672 1984 640
WIRE 1264 688 1264 640
WIRE 1296 688 1264 688
WIRE 1456 704 1376 704
WIRE 1296 720 1264 720
WIRE 1040 752 960 752
WIRE 1264 768 1264 720
WIRE 1264 768 1136 768
WIRE 1040 784 960 784
WIRE 1456 816 1456 704
WIRE 1536 816 1456 816
WIRE 1744 832 1616 832
WIRE 1856 832 1856 608
WIRE 1856 832 1808 832
WIRE 2032 832 1856 832
WIRE 1536 848 1456 848
WIRE 2160 848 2096 848
WIRE 2288 848 2160 848
WIRE 2032 864 1984 864
WIRE 1040 880 960 880
WIRE 1744 880 1680 880
WIRE 1264 896 1136 896
WIRE 1040 912 960 912
WIRE 1264 944 1264 896
WIRE 1296 944 1264 944
WIRE 1776 944 1776 912
WIRE 2160 944 2160 848
WIRE 2160 944 1776 944
WIRE 1456 960 1456 848
WIRE 1456 960 1376 960
WIRE 1296 976 1264 976
WIRE 1040 1008 960 1008
WIRE 1264 1024 1264 976
WIRE 1264 1024 1136 1024
WIRE 1040 1040 960 1040
FLAG 848 304 clkIn
FLAG 1024 176 Q0
FLAG 1184 176 Q1
FLAG 1344 176 Q2
FLAG 1504 176 Q3
FLAG 960 624 Q0
FLAG 960 752 Q1
FLAG 960 880 Q2
FLAG 960 1008 Q3
FLAG 960 656 P0
FLAG 960 784 P1
FLAG 960 912 P2
FLAG 960 1040 P3
FLAG 848 384 rst_internal
FLAG 1984 864 RST
FLAG 2288 848 rst_internal
FLAG 1680 880 clkIn
FLAG 2176 560 clkOut
FLAG 1984 672 RST
SYMBOL ffd_arst 944 288 R0
SYMATTR InstName X1
SYMATTR SpiceLine VDD={VDD} L={L} LD={LD} WN={WN} WPFACT=1.5
SYMBOL ffd_arst 1104 288 R0
SYMATTR InstName X2
SYMATTR SpiceLine VDD={VDD} L={L} LD={LD} WN={WN} WPFACT=1.5
SYMBOL ffd_arst 1264 288 R0
SYMATTR InstName X3
SYMATTR SpiceLine VDD={VDD} L={L} LD={LD} WN={WN} WPFACT=1.5
SYMBOL ffd_arst 1424 288 R0
SYMATTR InstName X4
SYMATTR SpiceLine VDD={VDD} L={L} LD={LD} WN={WN} WPFACT=1.5
SYMBOL xnor 1088 576 R0
SYMATTR InstName X9
SYMATTR SpiceLine VDD={VDD} L_INV={L} LD={LD} WN_INV={WN} WPFACT={WPFACT} L_TG={L} W_TG={WN}
SYMBOL and 1584 768 R0
SYMATTR InstName X15
SYMATTR SpiceLine VDD={VDD} L={L} LD={LD} WN={WN} WPFACT={WPFACT}
SYMBOL xnor 1088 704 R0
SYMATTR InstName X8
SYMATTR SpiceLine VDD={VDD} L_INV={L} LD={LD} WN_INV={WN} WPFACT={WPFACT} L_TG={L} W_TG={WN}
SYMBOL xnor 1088 832 R0
SYMATTR InstName X10
SYMATTR SpiceLine VDD={VDD} L_INV={L} LD={LD} WN_INV={WN} WPFACT={WPFACT} L_TG={L} W_TG={WN}
SYMBOL xnor 1088 960 R0
SYMATTR InstName X11
SYMATTR SpiceLine VDD={VDD} L_INV={L} LD={LD} WN_INV={WN} WPFACT={WPFACT} L_TG={L} W_TG={WN}
SYMBOL ffd_arst 1776 864 R0
SYMATTR InstName X16
SYMATTR SpiceLine VDD={VDD} L={L} LD={LD} WN={WN} WPFACT=1.5
SYMBOL or 2064 784 R0
SYMATTR InstName X17
SYMBOL and 1344 640 R0
SYMATTR InstName X5
SYMATTR SpiceLine VDD={VDD} L={L} LD={LD} WN={WN} WPFACT={WPFACT}
SYMBOL and 1344 896 R0
SYMATTR InstName X6
SYMATTR SpiceLine VDD={VDD} L={L} LD={LD} WN={WN} WPFACT={WPFACT}
SYMBOL ffd_arst 1984 592 R0
SYMATTR InstName X7
SYMATTR SpiceLine VDD={VDD} L={L} LD={LD} WN={WN} WPFACT=1.5
TEXT 320 -72 Left 2 !.include "TSMC180.lib"
