Version 4
SHEET 1 2272 2284
WIRE 816 1264 816 1216
WIRE 1120 1264 1120 1216
WIRE 736 1344 688 1344
WIRE 1040 1344 896 1344
WIRE 1296 1344 1200 1344
WIRE 816 1456 816 1424
WIRE 816 1456 752 1456
WIRE 1120 1472 1120 1424
WIRE 1120 1472 1056 1472
WIRE 816 1488 752 1488
WIRE 816 1520 816 1488
WIRE 1120 1520 1120 1472
WIRE 736 1600 688 1600
WIRE 1040 1600 896 1600
WIRE 1296 1600 1296 1344
WIRE 1296 1600 1200 1600
WIRE 352 1664 304 1664
WIRE 480 1664 448 1664
WIRE 816 1712 816 1680
WIRE 816 1712 752 1712
WIRE 1120 1712 1120 1680
WIRE 1120 1712 1056 1712
WIRE 1296 1712 1296 1600
WIRE 1440 1712 1296 1712
WIRE 1664 1712 1536 1712
WIRE 816 1744 816 1712
WIRE 1120 1744 1120 1712
WIRE 352 1760 304 1760
WIRE 480 1760 448 1760
WIRE 736 1824 688 1824
WIRE 1040 1824 896 1824
WIRE 1296 1824 1296 1712
WIRE 1296 1824 1200 1824
WIRE 816 1936 816 1904
WIRE 816 1936 752 1936
WIRE 1120 1952 1120 1904
WIRE 1120 1952 1056 1952
WIRE 816 1968 752 1968
WIRE 816 2000 816 1968
WIRE 1120 2000 1120 1952
WIRE 736 2080 688 2080
WIRE 1040 2080 896 2080
WIRE 1296 2080 1296 1824
WIRE 1296 2080 1200 2080
WIRE 816 2208 816 2160
WIRE 1120 2208 1120 2160
FLAG 304 1664 S0
FLAG 304 1760 S1
FLAG 480 1664 nS0
FLAG 480 1760 nS1
FLAG 816 1216 S1
FLAG 752 1488 S1
FLAG 752 1936 S1
FLAG 816 2208 S1
FLAG 752 1456 nS1
FLAG 752 1712 nS1
FLAG 752 1968 nS1
FLAG 1120 1216 S0
FLAG 1056 1712 S0
FLAG 1120 2208 S0
FLAG 1056 1472 nS0
FLAG 1056 1952 nS0
FLAG 1664 1712 nO
FLAG 688 1344 I0
FLAG 688 1600 I1
FLAG 688 1824 I2
FLAG 688 2080 I3
SYMBOL tgate 784 1344 R0
SYMATTR InstName X3
SYMATTR SpiceLine VDD={VDD} L={L} LD={LD} W={WN}
SYMBOL tgate 784 1600 R0
SYMATTR InstName X4
SYMATTR SpiceLine VDD={VDD} L={L} LD={LD} W={WN}
SYMBOL inversor 368 1664 R0
WINDOW 0 20 -37 Left 2
SYMATTR InstName X1
SYMATTR SpiceLine VDD={VDD} L={L} LD={LD} WN={WN} WPFACT={WPFACT}
SYMBOL inversor 368 1760 R0
WINDOW 0 20 -37 Left 2
SYMATTR InstName X2
SYMATTR SpiceLine VDD={VDD} L={L} LD={LD} WN={WN} WPFACT={WPFACT}
SYMBOL tgate 784 1824 R0
SYMATTR InstName X5
SYMATTR SpiceLine VDD={VDD} L={L} LD={LD} W={WN}
SYMBOL tgate 784 2080 R0
SYMATTR InstName X6
SYMATTR SpiceLine VDD={VDD} L={L} LD={LD} W={WN}
SYMBOL tgate 1088 1344 R0
SYMATTR InstName X7
SYMATTR SpiceLine VDD={VDD} L={L} LD={LD} W={WN}
SYMBOL tgate 1088 1600 R0
SYMATTR InstName X8
SYMATTR SpiceLine VDD={VDD} L={L} LD={LD} W={WN}
SYMBOL tgate 1088 1824 R0
SYMATTR InstName X9
SYMATTR SpiceLine VDD={VDD} L={L} LD={LD} W={WN}
SYMBOL tgate 1088 2080 R0
SYMATTR InstName X10
SYMATTR SpiceLine VDD={VDD} L={L} LD={LD} W={WN}
SYMBOL inversor 1456 1712 R0
WINDOW 0 20 -37 Left 2
SYMATTR InstName X11
SYMATTR SpiceLine VDD={VDD} L={L} LD={LD} WN={WN} WPFACT={WPFACT}
