Version 4
SHEET 1 1644 680
WIRE 912 256 848 256
WIRE 1024 256 976 256
WIRE 1392 256 1024 256
WIRE 912 304 848 304
WIRE 1328 304 1056 304
WIRE 1392 304 1328 304
WIRE 672 320 672 288
WIRE 1024 368 1024 256
WIRE 1056 368 1056 304
WIRE 1216 384 1152 384
WIRE 1328 384 1328 304
WIRE 1328 384 1280 384
WIRE 672 432 672 400
WIRE 1216 432 1152 432
WIRE 944 496 944 336
WIRE 1040 496 1040 448
WIRE 1040 496 944 496
WIRE 1248 496 1248 464
WIRE 1248 496 1040 496
FLAG 672 288 Vdd
FLAG 848 256 Vdd
FLAG 848 304 clkIn
FLAG 1152 432 clkFB
FLAG 1152 384 Vdd
FLAG 1392 256 UP
FLAG 1392 304 DOWN
FLAG 672 432 0
SYMBOL voltage 672 304 R0
WINDOW 123 0 0 Left 0
WINDOW 39 0 0 Left 0
SYMATTR InstName V1
SYMATTR Value {VDD}
SYMBOL ffd_arst 944 288 R0
SYMATTR InstName X1
SYMATTR SpiceLine VDD={VDD} L={L} LD={LD} WN={WN} WPFACT=1.5
SYMBOL ffd_arst 1248 416 R0
SYMATTR InstName X2
SYMATTR SpiceLine VDD={VDD} L={L} LD={LD} WN={WN} WPFACT=1.5
SYMBOL and 1104 416 R90
WINDOW 0 -2 102 Left 2
SYMATTR InstName X3
SYMATTR SpiceLine VDD={VDD} L={L} LD={LD} WN={WN} WPFACT=1.5
TEXT 320 -72 Left 2 !.include "TSMC180.lib"
