Version 4
SHEET 1 1996 748
WIRE 1680 -192 1008 -192
WIRE 1008 -144 1008 -192
WIRE 1040 -144 1008 -144
WIRE 1184 -128 1136 -128
WIRE 1216 -128 1184 -128
WIRE 1392 -128 1312 -128
WIRE 1552 -128 1488 -128
WIRE 880 -112 832 -112
WIRE 1040 -112 976 -112
WIRE 1552 -112 1488 -112
WIRE 1680 -112 1680 -192
WIRE 1680 -112 1648 -112
WIRE 1712 -112 1680 -112
WIRE 1904 -112 1808 -112
WIRE 1552 -96 1520 -96
WIRE 1184 -80 1184 -128
WIRE 1184 -80 1008 -80
WIRE 1312 -80 1184 -80
WIRE 1008 0 1008 -80
WIRE 1040 0 1008 0
WIRE 1184 16 1136 16
WIRE 1344 16 1184 16
WIRE 1488 16 1488 -112
WIRE 1488 16 1344 16
WIRE 1040 32 1008 32
WIRE 1008 64 1008 32
WIRE 1168 64 1008 64
WIRE 1184 80 1184 16
WIRE 1184 80 1008 80
WIRE 1008 144 1008 80
WIRE 1040 144 1008 144
WIRE 1168 160 1168 64
WIRE 1168 160 1136 160
WIRE 1040 176 1008 176
WIRE 1344 192 1344 16
WIRE 1376 192 1344 192
WIRE 1312 208 1312 -80
WIRE 1376 208 1312 208
WIRE 1008 224 1008 176
WIRE 1216 224 1008 224
WIRE 1520 224 1520 -96
WIRE 1520 224 1472 224
WIRE 1584 224 1520 224
WIRE 1376 240 1312 240
WIRE 1376 256 1344 256
WIRE 1008 288 1008 224
WIRE 1040 288 1008 288
WIRE 1168 304 1136 304
WIRE 1040 320 1008 320
WIRE 1008 352 1008 320
WIRE 1184 352 1008 352
WIRE 1168 368 1168 304
WIRE 1168 368 1008 368
WIRE 1216 384 1216 224
WIRE 1520 384 1520 224
WIRE 1520 384 1216 384
WIRE 1008 432 1008 368
WIRE 1040 432 1008 432
WIRE 1184 448 1184 352
WIRE 1184 448 1136 448
WIRE 1344 448 1344 256
WIRE 1344 448 1184 448
WIRE 1488 448 1344 448
WIRE 1040 464 1008 464
WIRE 1008 528 1008 464
WIRE 1184 528 1008 528
WIRE 1312 528 1312 240
WIRE 1312 528 1184 528
WIRE 1520 544 1520 384
WIRE 1552 544 1520 544
WIRE 880 560 832 560
WIRE 1040 560 976 560
WIRE 1488 560 1488 448
WIRE 1552 560 1488 560
WIRE 1680 560 1648 560
WIRE 1712 560 1680 560
WIRE 1904 560 1808 560
WIRE 1184 576 1184 528
WIRE 1184 576 1136 576
WIRE 1216 576 1184 576
WIRE 1392 576 1312 576
WIRE 1552 576 1488 576
WIRE 1040 592 1008 592
WIRE 1008 656 1008 592
WIRE 1680 656 1680 560
WIRE 1680 656 1008 656
FLAG 832 -112 data
FLAG 832 560 dclock
FLAG 1584 224 RST
FLAG 1904 -112 UP
FLAG 1904 560 DOWN
SYMBOL inversor 896 -112 R0
WINDOW 0 30 -39 Left 2
SYMATTR InstName X1
SYMATTR SpiceLine VDD={VDD} L={L} LD={LD} WN={WN} WPFACT={WPFACT}
SYMBOL inversor 1232 -128 R0
SYMATTR InstName X2
SYMATTR SpiceLine VDD={VDD} L={L} LD={LD} WN={WN} WPFACT={WPFACT}
SYMBOL inversor 1408 -128 R0
SYMATTR InstName X3
SYMATTR SpiceLine VDD={VDD} L={L} LD={LD} WN={WN} WPFACT={WPFACT}
SYMBOL inversor 1728 -112 R0
SYMATTR InstName X4
SYMATTR SpiceLine VDD={VDD} L={L} LD={LD} WN={WN} WPFACT={WPFACT}
SYMBOL inversor 896 560 R0
WINDOW 0 20 -42 Left 2
SYMATTR InstName X5
SYMATTR SpiceLine VDD={VDD} L={L} LD={LD} WN={WN} WPFACT={WPFACT}
SYMBOL inversor 1232 576 R0
WINDOW 0 0 58 Left 2
SYMATTR InstName X6
SYMATTR SpiceLine VDD={VDD} L={L} LD={LD} WN={WN} WPFACT={WPFACT}
SYMBOL inversor 1408 576 R0
WINDOW 0 -7 59 Left 2
SYMATTR InstName X7
SYMATTR SpiceLine VDD={VDD} L={L} LD={LD} WN={WN} WPFACT={WPFACT}
SYMBOL inversor 1728 560 R0
SYMATTR InstName X8
SYMATTR SpiceLine VDD={VDD} L={L} LD={LD} WN={WN} WPFACT={WPFACT}
SYMBOL nand 1088 -192 R0
WINDOW 0 23 32 Left 2
SYMATTR InstName X9
SYMATTR SpiceLine VDD={VDD} L={L} LD={LD} WN={WN} WPFACT={WPFACT}
SYMBOL nand 1088 -48 R0
SYMATTR InstName X10
SYMATTR SpiceLine VDD={VDD} L={L} LD={LD} WN={WN} WPFACT={WPFACT}
SYMBOL nand 1088 96 R0
SYMATTR InstName X11
SYMATTR SpiceLine VDD={VDD} L={L} LD={LD} WN={WN} WPFACT={WPFACT}
SYMBOL nand 1088 240 R0
SYMATTR InstName X12
SYMATTR SpiceLine VDD={VDD} L={L} LD={LD} WN={WN} WPFACT={WPFACT}
SYMBOL nand 1088 384 R0
SYMATTR InstName X13
SYMATTR SpiceLine VDD={VDD} L={L} LD={LD} WN={WN} WPFACT={WPFACT}
SYMBOL nand 1088 512 R0
WINDOW 0 -29 122 Left 2
SYMATTR InstName X14
SYMATTR SpiceLine VDD={VDD} L={L} LD={LD} WN={WN} WPFACT={WPFACT}
SYMBOL nand3 1600 -176 R0
SYMATTR InstName X15
SYMATTR SpiceLine VDD={VDD} L={L} LD={LD} WN={WN} WPFACT={WPFACT}
SYMBOL nand3 1600 496 R0
SYMATTR InstName X16
SYMATTR SpiceLine VDD={VDD} L={L} LD={LD} WN={WN} WPFACT={WPFACT}
SYMBOL nand4 1424 144 R0
WINDOW 0 -55 8 Left 2
SYMATTR InstName X17
SYMATTR SpiceLine VDD={VDD} L={L} LD={LD} WN={WN} WPFACT={WPFACT}
TEXT 696 200 Left 2 !.include "TSMC180.lib"
