Version 4
SHEET 1 1992 1140
WIRE 96 144 -64 144
WIRE 336 144 272 144
WIRE 96 192 16 192
WIRE 336 192 272 192
WIRE 16 240 16 192
WIRE 16 368 16 320
WIRE -64 416 -64 144
WIRE -64 544 -64 496
FLAG 16 368 0
FLAG -64 544 0
FLAG 336 144 UP
FLAG 336 192 DOWN
FLAG -64 144 data
FLAG 16 192 dclock
SYMBOL pfd2 128 176 R0
SYMATTR InstName X1
SYMBOL voltage 16 224 R0
WINDOW 3 19 110 Left 2
WINDOW 123 0 0 Left 0
WINDOW 39 0 0 Left 0
SYMATTR Value PULSE(1.8 0 {(1/(2*FREQ)) + TOFF} 70p 70p {1/(2*FREQ)} {1/FREQ} 3)
SYMATTR InstName V3
SYMBOL voltage -64 400 R0
WINDOW 3 30 110 Left 2
WINDOW 123 0 0 Left 0
WINDOW 39 0 0 Left 0
SYMATTR Value PULSE(1.8 0 {1/(2*FREQ)} 70p 70p {1/(2*FREQ)} {1/FREQ} 3)
SYMATTR InstName V2
TEXT 1016 112 Left 2 !.param FREQ = 25e6
TEXT 1024 168 Left 2 !.tran 120n
TEXT 1016 136 Left 2 !.step param TOFF -2n 2n 10p
TEXT 1016 240 Left 2 !.meas TRAN UP_TIME TRIG V(UP)=0.9 RISE=1 TARG V(UP)=0.9 FALL=1
TEXT 1016 272 Left 2 !.meas TRAN DOWN_TIME TRIG V(DOWN)=0.9 RISE=1 TARG V(DOWN)=0.9 FALL=2
TEXT 1016 304 Left 2 !.meas TRAN DIFF PARAM UP_TIME - DOWN_TIME
