Version 4
SHEET 1 1868 1284
WIRE 864 240 864 208
WIRE 864 240 816 240
WIRE 912 240 864 240
WIRE 816 272 816 240
WIRE 608 288 560 288
WIRE 768 288 704 288
WIRE 912 320 912 240
WIRE 912 320 816 320
WIRE 816 384 816 368
WIRE 992 384 816 384
WIRE 816 400 816 384
WIRE 912 448 816 448
WIRE 480 464 480 432
WIRE 768 480 672 480
WIRE 816 528 816 496
WIRE 864 528 816 528
WIRE 912 528 912 448
WIRE 912 528 864 528
WIRE 480 576 480 544
WIRE 864 576 864 528
FLAG 480 576 0
FLAG 480 432 Vdd
FLAG 864 208 Vdd
FLAG 992 384 Vpd
FLAG 864 576 0
FLAG 560 288 UP
FLAG 672 480 DOWN
SYMBOL voltage 480 448 R0
WINDOW 123 0 0 Left 0
WINDOW 39 0 0 Left 0
SYMATTR InstName V1
SYMATTR Value 1.8
SYMBOL pmos4 768 368 M180
SYMATTR InstName M1
SYMATTR Value CMOSP
SYMATTR Value2 l={L} w={WP} ad={ADS(WP, LD)} as={ADS(WP, LD)} pd={PDS(WP, LD)} ps={PDS(WP, LD)}
SYMBOL nmos4 768 400 R0
SYMATTR InstName M2
SYMATTR Value CMOSN
SYMATTR Value2 l={L} w={WN} ad={ADS(WN, LD)} as={ADS(WN, LD)} pd={PDS(WN, LD)} ps={PDS(WN, LD)}
SYMBOL inversor 624 288 R0
SYMATTR InstName X1
SYMATTR SpiceLine VDD={VDD} L={L} LD={LD} WN={WN} WPFACT={WPFACT}
TEXT 392 112 Left 2 !.include "TSMC180.lib"
TEXT 392 144 Left 2 !.func ADS(w, ld) = {w * ld}
TEXT 392 176 Left 2 !.func PDS(w, ld) {w + 2*ld}
TEXT 392 208 Left 2 !.param WP = {WN * WPFACT}
