Version 4
SHEET 1 1644 680
WIRE 352 176 352 144
WIRE 704 208 512 208
WIRE 1008 208 880 208
WIRE 704 256 624 256
WIRE 1008 256 880 256
WIRE 352 288 352 256
WIRE 512 336 512 208
WIRE 624 336 624 256
WIRE 512 368 512 336
WIRE 624 368 624 336
WIRE 512 480 512 448
WIRE 624 480 624 448
FLAG 352 288 0
FLAG 352 144 Vdd
FLAG 512 480 0
FLAG 512 336 clkIn
FLAG 624 480 0
FLAG 624 336 clkFB
FLAG 1008 208 UP
FLAG 1008 256 DOWN
SYMBOL voltage 352 160 R0
WINDOW 123 0 0 Left 0
WINDOW 39 0 0 Left 0
SYMATTR InstName V1
SYMATTR Value 1.8
SYMBOL voltage 512 352 R0
WINDOW 123 0 0 Left 0
WINDOW 39 0 0 Left 0
WINDOW 3 24 96 Invisible 2
SYMATTR Value PULSE(0 1.8 0 10p 10p {1/(2*FREQ)} {1/FREQ})
SYMATTR InstName V2
SYMBOL voltage 624 352 R0
WINDOW 123 0 0 Left 0
WINDOW 39 0 0 Left 0
WINDOW 3 24 96 Invisible 2
SYMATTR Value PULSE(0 1.8 {OFFSET} 10p 10p {1/(2*FREQ)} {1/FREQ})
SYMATTR InstName V3
SYMBOL pfd 736 240 R0
SYMATTR InstName X1
TEXT 320 -72 Left 2 !.include "TSMC180.lib"
TEXT 792 392 Left 2 !.param FREQ = 50e6
TEXT 792 424 Left 2 !.param OFFSET 5n
TEXT 792 448 Left 2 !.tran 100n
