Version 4
SHEET 1 6384 2884
WIRE -96 1184 -192 1184
WIRE 144 1184 80 1184
WIRE 400 1200 288 1200
WIRE -96 1232 -192 1232
WIRE 144 1232 80 1232
FLAG -192 1184 data
FLAG -192 1232 dclock
FLAG 400 1200 Vpd
SYMBOL pfd2 -64 1216 R0
SYMATTR InstName X8
SYMATTR SpiceLine VDD={VDD} L={PFD_L} LD={LD} WN={PFD_WN} WPFACT={WPFACT}
SYMBOL pfd_tri_state 192 1200 R0
SYMATTR SpiceLine VDD={VDD} L={TS_L} LD={LD} WN={TS_WN} WPFACT={WPFACT}
SYMATTR InstName X9
TEXT -224 1088 Left 2 !.include "TSMC180.lib"
