Version 4
SHEET 1 1644 1284
WIRE 928 208 928 176
WIRE 928 208 880 208
WIRE 976 208 928 208
WIRE 880 240 880 208
WIRE 672 256 624 256
WIRE 832 256 768 256
WIRE 976 288 976 208
WIRE 976 288 880 288
WIRE 352 336 352 304
WIRE 880 352 880 336
WIRE 1056 352 880 352
WIRE 1152 352 1056 352
WIRE 1328 352 1232 352
WIRE 1424 352 1328 352
WIRE 880 368 880 352
WIRE -544 400 -704 400
WIRE -304 400 -368 400
WIRE 1328 400 1328 352
WIRE 976 416 880 416
WIRE -544 448 -624 448
WIRE -304 448 -368 448
WIRE 352 448 352 416
WIRE 832 448 624 448
WIRE -624 496 -624 448
WIRE 880 496 880 464
WIRE 928 496 880 496
WIRE 976 496 976 416
WIRE 976 496 928 496
WIRE 1328 512 1328 464
WIRE 928 544 928 496
WIRE -624 624 -624 576
WIRE 1328 640 1328 592
WIRE -704 672 -704 400
WIRE -704 800 -704 752
FLAG 352 448 0
FLAG 352 304 Vdd
FLAG 928 176 Vdd
FLAG 1056 352 Vpd
FLAG 928 544 0
FLAG 624 256 UP
FLAG 624 448 DOWN
FLAG 1328 640 0
FLAG 1424 352 Vin_vco
FLAG -624 624 0
FLAG -704 800 0
FLAG -304 400 UP
FLAG -304 448 DOWN
FLAG -704 400 data
FLAG -624 448 dclock
SYMBOL voltage 352 320 R0
WINDOW 123 0 0 Left 0
WINDOW 39 0 0 Left 0
SYMATTR InstName V1
SYMATTR Value 1.8
SYMBOL pmos4 832 336 M180
SYMATTR InstName M1
SYMATTR Value CMOSP
SYMATTR Value2 l={L} w={WP} ad={ADS(WP, LD)} as={ADS(WP, LD)} pd={PDS(WP, LD)} ps={PDS(WP, LD)}
SYMBOL nmos4 832 368 R0
SYMATTR InstName M2
SYMATTR Value CMOSN
SYMATTR Value2 l={L} w={WN} ad={ADS(WN, LD)} as={ADS(WN, LD)} pd={PDS(WN, LD)} ps={PDS(WN, LD)}
SYMBOL inversor 688 256 R0
SYMATTR InstName X1
SYMBOL res 1248 336 R90
WINDOW 0 0 56 VBottom 2
WINDOW 3 32 56 VTop 2
SYMATTR InstName R1
SYMATTR Value 2.56k
SYMBOL res 1344 608 R180
WINDOW 0 36 76 Left 2
WINDOW 3 36 40 Left 2
SYMATTR InstName R2
SYMATTR Value 20k
SYMBOL cap 1312 400 R0
SYMATTR InstName C1
SYMATTR Value 10p
SYMBOL pfd2 -512 432 R0
SYMATTR InstName X3
SYMBOL voltage -624 480 R0
WINDOW 3 19 110 Left 2
WINDOW 123 0 0 Left 0
WINDOW 39 0 0 Left 0
SYMATTR Value PULSE(1.8 0 {(1/(2*FREQ)) + TOFF} 70p 70p {1/(2*FREQ)} {1/FREQ} 3)
SYMATTR InstName V2
SYMBOL voltage -704 656 R0
WINDOW 3 30 110 Left 2
WINDOW 123 0 0 Left 0
WINDOW 39 0 0 Left 0
SYMATTR Value PULSE(1.8 0 {1/(2*FREQ)} 70p 70p {1/(2*FREQ)} {1/FREQ} 3)
SYMATTR InstName V3
TEXT 384 592 Left 2 !.include "TSMC180.lib"
TEXT 384 624 Left 2 !.func ADS(w, ld) = {w * ld}
TEXT 384 656 Left 2 !.func PDS(w, ld) {w + 2*ld}
TEXT 384 688 Left 2 !.param WP = {WN * WPFACT}
TEXT 384 720 Left 2 !.param LD 0.48u
TEXT 384 752 Left 2 !.param L = 1.8u
TEXT 384 784 Left 2 !.param WN = 4.2u
TEXT 384 816 Left 2 !.param WPFACT = 1.5
TEXT -696 880 Left 2 !.param FREQ = 25e6
TEXT -696 904 Left 2 !.param TOFF 500p
