Version 4
SHEET 1 1560 760
WIRE -32 64 -208 64
WIRE 288 64 144 64
WIRE -208 128 -208 64
WIRE -208 240 -208 208
FLAG -208 240 0
FLAG 288 64 clkOut
SYMBOL vco7 16 64 R0
SYMATTR SpiceLine VDD=1.8, LD={LD}, L_INV={L_INV}, WN_INV={WN_INV}, WPFACT_INV={WPFACT_INV}, L_CS={L_CS}, WN_CS={WN_CS}, WPFACT_CS={WPFACT_CS}, WIDE_FACT_CS={WIDE_FACT_CS}, R1_CS={R1_CS}, R2_CS={R2_CS}
SYMATTR InstName X1
SYMBOL voltage -208 112 R0
WINDOW 123 0 0 Left 0
WINDOW 39 0 0 Left 0
SYMATTR InstName VIN
SYMATTR Value {VIN}
TEXT -72 -144 Left 2 !.param COX_PER_M_SQUARED = 8.418m
TEXT -72 -96 Left 2 !.param Ctot = { 2.5 * COX_PER_M_SQUARED * L_INV * (WN_INV + WP_INV) }
TEXT -72 -72 Left 2 !.param ID_CALC = {11.5u*VIN - 0.5u}
TEXT -72 -48 Left 2 !.param N = 7
TEXT -72 -24 Left 2 !.param FREQ_CALC = { ID_CALC / (N * Ctot * 1.8) }
TEXT -72 0 Left 2 !.meas F_CALC_MEAS PARAM FREQ_CALC
TEXT -552 352 Left 2 !.meas PERIOD_100 TRIG V(clkOut)=0.9 TD={DBS} RISE=1 TARG V(clkOut)=0.9 TD={DBS} RISE=101
TEXT -552 376 Left 2 !.meas FREQ PARAM 100/(PERIOD_100)
TEXT -552 328 Left 2 !.param DBS = 5u
TEXT -552 400 Left 2 !.meas DUTY_CYCLE AVG 100*V(clkOut)/1.8 TRIG V(clkOut)=0.9 TD={DBS} TARG V(clkOut)=0.9 TD={DBS} RISE=101
TEXT -552 184 Left 2 !.tran 0 8u 0 100p
TEXT -552 160 Left 2 !.step param VIN 0 1.8 0.1
TEXT -488 -200 Left 2 ;Cacular la frecuencia esperado por cada VIN\nNota: solo válido para CS con:\n    L_CS = 0.9u\n    WN_CS = 4u\n    WPFACT_CS = 1.5\n    R1_CS = 20k\n    R2_CS = 86k\n    WIDE_FACT = 3
TEXT -544 296 Left 2 ;Medir la frecuencia y el duty cycle de la salida
TEXT -72 136 Left 2 !.param LD = 0.48u
TEXT -72 184 Left 2 !.param L_INV = 0.18u
TEXT -72 208 Left 2 !.param WN_INV = 0.57u
TEXT -72 232 Left 2 !.param WPFACT_INV = 1.5
TEXT 264 136 Left 2 !.param L_CS = 0.9u
TEXT 264 160 Left 2 !.param WN_CS = 4u
TEXT 264 184 Left 2 !.param WPFACT_CS = 1.5
TEXT 264 208 Left 2 !.param WIDE_FACT_CS = 3
TEXT 264 232 Left 2 !.param R1_CS = 20k
TEXT 264 256 Left 2 !.param R2_CS =86k
TEXT -72 -120 Left 2 !.param WP_INV = {WN_INV * WPFACT_INV}
TEXT -344 328 Left 2 ;DBS -> DELAY BEFORE SAMPLE
