Version 4
SHEET 1 3496 1412
WIRE 736 384 736 336
WIRE 736 384 608 384
WIRE 864 384 736 384
WIRE 272 400 224 400
WIRE 48 416 -32 416
WIRE 272 432 224 432
WIRE 608 432 608 384
WIRE 720 432 608 432
WIRE 608 448 608 432
WIRE 864 448 864 384
WIRE 560 464 496 464
WIRE -192 496 -192 464
WIRE -32 496 -32 416
WIRE 720 496 720 432
WIRE 720 496 608 496
WIRE 960 496 864 496
WIRE 816 528 768 528
WIRE 864 560 864 544
WIRE 960 560 960 496
WIRE 960 560 864 560
WIRE 608 592 608 544
WIRE 736 592 608 592
WIRE 864 592 864 560
WIRE 864 592 736 592
WIRE -192 608 -192 576
WIRE -32 608 -32 576
WIRE 736 640 736 592
FLAG -192 608 0
FLAG -192 464 Vdd
FLAG -32 608 0
FLAG -32 416 VIN
FLAG 272 400 VP
FLAG 272 432 VN
FLAG 496 464 VP
FLAG 768 528 VN
FLAG 736 640 0
FLAG 736 336 Vdd
SYMBOL voltage -192 480 R0
WINDOW 123 0 0 Left 0
WINDOW 39 0 0 Left 0
SYMATTR InstName V1
SYMATTR Value 1.8
SYMBOL voltage -32 480 R0
WINDOW 123 0 0 Left 0
WINDOW 39 0 0 Left 0
SYMATTR InstName Vin
SYMATTR Value PULSE(0 1.8 0 50n 50n)
SYMBOL vco_current_source 96 416 R0
SYMATTR SpiceLine VDD=1.8 L={L_CS} W_BASE={WN_CS} WPFACT={WPFACT_CS} WIDE_FACT={WIDE_FACT} LD=0.48u R1={R1_CS} R2={R2_CS}
SYMATTR InstName X8
SYMBOL pmos4 560 544 M180
SYMATTR InstName M2
SYMATTR Value CMOSP
SYMATTR Value2 l={L_CS} w={WP_CS} ad={ADS(WP_CS, LD)} as={ADS(WP_CS, LD)} pd={PDS(WP_CS, LD)} ps={PDS(WP_CS, LD)}
SYMBOL nmos4 816 448 R0
SYMATTR InstName M6
SYMATTR Value CMOSN
SYMATTR Value2 l={L_CS} w={WN_CS} ad={ADS(WN_CS, LD)} as={ADS(WN_CS, LD)} pd={PDS(WN_CS, LD)} ps={PDS(WN_CS, LD)}
TEXT -216 -112 Left 2 !.include "TSMC180.lib"
TEXT -216 -40 Left 2 !.func ADS(w, ld) = {w * ld}
TEXT -216 -8 Left 2 !.func PDS(w, ld) {w + 2*ld}
TEXT -216 -72 Left 2 !.param LD = 0.48u
TEXT -104 696 Left 2 !.dc Vin 0 1.8 1m
TEXT -216 136 Left 2 !.param L_CS 0.9u
TEXT -216 168 Left 2 !.param WN_CS 4u
TEXT -216 200 Left 2 !.param WPFACT_CS 1.5
TEXT -216 232 Left 2 !.param WP_CS = { WN_CS * WPFACT_CS }
TEXT -216 48 Left 2 !.param L_INV = 0.9u
TEXT -216 80 Left 2 !.param WN_INV = 2.1u
TEXT -216 264 Left 2 !.param R1_CS = 20k
TEXT -216 328 Left 2 !.param WIDE_FACT = 3
TEXT -216 296 Left 2 !.param R2_CS = 86k
