Version 4
SHEET 1 1588 748
WIRE 1088 160 1088 112
WIRE 816 240 736 240
WIRE 992 240 912 240
WIRE 1008 240 992 240
WIRE 1248 240 1168 240
WIRE 528 352 528 320
WIRE 816 368 736 368
WIRE 992 368 912 368
WIRE 1088 368 1088 320
WIRE 1088 368 992 368
WIRE 1248 368 1248 240
WIRE 1296 368 1248 368
WIRE 1328 368 1296 368
WIRE 1520 368 1424 368
WIRE 1088 400 1088 368
WIRE 528 464 528 432
WIRE 1008 480 736 480
WIRE 1248 480 1248 368
WIRE 1248 480 1168 480
WIRE 1088 592 1088 560
FLAG 528 464 0
FLAG 528 320 Vdd
FLAG 1520 368 OUT
FLAG 1088 592 A
FLAG 1088 112 A
FLAG 992 368 nA
FLAG 992 240 nB
FLAG 736 480 B
FLAG 736 240 B
FLAG 736 368 A
FLAG 1296 368 x
SYMBOL voltage 528 336 R0
WINDOW 123 0 0 Left 0
WINDOW 39 0 0 Left 0
SYMATTR InstName V1
SYMATTR Value {VDD}
SYMBOL inversor 832 240 R0
SYMATTR InstName X1
SYMATTR SpiceLine VDD={VDD} L={L_INV} LD={LD} WN={WN_INV} WPFACT={WPFACT}
SYMBOL inversor 832 368 R0
SYMATTR InstName X2
SYMATTR SpiceLine VDD={VDD} L={L_INV} LD={LD} WN={WN_INV} WPFACT={WPFACT}
SYMBOL tgate 1056 240 R0
SYMATTR InstName X3
SYMATTR SpiceLine VDD={VDD} L={L_TG} LD={LD} W={W_TG}
SYMBOL tgate 1056 480 R0
SYMATTR InstName X4
SYMATTR SpiceLine VDD={VDD} L={L_TG} LD={LD} W={W_TG}
SYMBOL inversor 1344 368 R0
SYMATTR InstName X5
SYMATTR SpiceLine VDD={VDD} L={L_INV} LD={LD} WN={WN_INV} WPFACT={WPFACT}
