Version 4
SHEET 1 1484 884
WIRE 928 -192 928 -224
WIRE 1024 -192 928 -192
WIRE 1184 -192 1184 -224
WIRE 1280 -192 1184 -192
WIRE 928 -160 928 -192
WIRE 1184 -160 1184 -192
WIRE 880 -144 832 -144
WIRE 1136 -144 1088 -144
WIRE 1024 -112 1024 -192
WIRE 1024 -112 928 -112
WIRE 1280 -112 1280 -192
WIRE 1280 -112 1184 -112
WIRE 928 96 928 -64
WIRE 1184 96 1184 -64
WIRE 880 112 832 112
WIRE 1136 112 1088 112
WIRE 1024 144 1024 32
WIRE 1024 144 928 144
WIRE 1280 144 1280 32
WIRE 1280 144 1184 144
WIRE 352 176 352 144
WIRE 352 288 352 256
WIRE 928 304 928 192
WIRE 1056 304 928 304
WIRE 1184 304 1184 192
WIRE 1184 304 1056 304
WIRE 1424 304 1184 304
WIRE 1056 384 1056 304
WIRE 1056 384 928 384
WIRE 1184 384 1056 384
WIRE 928 448 928 384
WIRE 1184 448 1184 384
WIRE 320 464 240 464
WIRE 576 464 416 464
WIRE 1024 496 928 496
WIRE 1280 496 1184 496
WIRE 880 528 832 528
WIRE 1136 528 1088 528
WIRE 1024 576 1024 496
WIRE 1280 576 1280 496
WIRE 928 624 928 544
WIRE 1184 624 1184 544
WIRE 1184 624 928 624
WIRE 320 688 240 688
WIRE 576 688 416 688
WIRE 928 688 928 624
WIRE 1184 688 1184 624
WIRE 1024 736 928 736
WIRE 1280 736 1184 736
WIRE 880 768 832 768
WIRE 1136 768 1088 768
WIRE 928 816 928 784
WIRE 1024 816 1024 736
WIRE 1024 816 928 816
WIRE 1184 816 1184 784
WIRE 1280 816 1280 736
WIRE 1280 816 1184 816
WIRE 928 864 928 816
WIRE 1184 864 1184 816
FLAG 1024 32 Vdd
FLAG 1024 576 0
FLAG 352 288 0
FLAG 352 144 Vdd
FLAG 576 688 nA
FLAG 576 464 nB
FLAG 240 464 B
FLAG 240 688 A
FLAG 1280 576 0
FLAG 928 864 0
FLAG 1184 864 0
FLAG 832 528 A
FLAG 832 768 nA
FLAG 1088 768 B
FLAG 1088 528 nB
FLAG 1280 32 Vdd
FLAG 928 -224 Vdd
FLAG 1184 -224 Vdd
FLAG 1088 -144 A
FLAG 832 -144 nA
FLAG 832 112 B
FLAG 1088 112 nB
FLAG 1424 304 Out
SYMBOL pmos4 880 192 M180
SYMATTR InstName M3
SYMATTR Value CMOSP
SYMATTR Value2 l={L} w={WP} ad={ADS(WP, LD)} as={ADS(WP, LD)} pd={PDS(WP, LD)} ps={PDS(WP, LD)}
SYMBOL nmos4 880 448 R0
SYMATTR InstName M4
SYMATTR Value CMOSN
SYMATTR Value2 l={L} w={2*WN} ad={ADS(2*WN, LD)} as={ADS(2*WN, LD)} pd={PDS(2*WN, LD)} ps={PDS(2*WN, LD)}
SYMBOL voltage 352 160 R0
WINDOW 123 0 0 Left 0
WINDOW 39 0 0 Left 0
SYMATTR InstName V1
SYMATTR Value {VDD}
SYMBOL inversor 336 464 R0
SYMATTR InstName X1
SYMATTR SpiceLine VDD={VDD} L={L} LD={LD} WN={WN} WPFACT={WPFACT}
SYMBOL inversor 336 688 R0
SYMATTR InstName X2
SYMATTR SpiceLine VDD={VDD} L={L} LD={LD} WN={WN} WPFACT={WPFACT}
SYMBOL nmos4 1136 448 R0
SYMATTR InstName M1
SYMATTR Value CMOSN
SYMATTR Value2 l={L} w={2*WN} ad={ADS(2*WN, LD)} as={ADS(2*WN, LD)} pd={PDS(2*WN, LD)} ps={PDS(2*WN, LD)}
SYMBOL nmos4 880 688 R0
SYMATTR InstName M2
SYMATTR Value CMOSN
SYMATTR Value2 l={L} w={2*WN} ad={ADS(2*WN, LD)} as={ADS(2*WN, LD)} pd={PDS(2*WN, LD)} ps={PDS(2*WN, LD)}
SYMBOL nmos4 1136 688 R0
SYMATTR InstName M5
SYMATTR Value CMOSN
SYMATTR Value2 l={L} w={2*WN} ad={ADS(2*WN, LD)} as={ADS(2*WN, LD)} pd={PDS(2*WN, LD)} ps={PDS(2*WN, LD)}
SYMBOL pmos4 1136 192 M180
SYMATTR InstName M6
SYMATTR Value CMOSP
SYMATTR Value2 l={L} w={WP} ad={ADS(WP, LD)} as={ADS(WP, LD)} pd={PDS(WP, LD)} ps={PDS(WP, LD)}
SYMBOL pmos4 880 -64 M180
SYMATTR InstName M7
SYMATTR Value CMOSP
SYMATTR Value2 l={L} w={WP} ad={ADS(WP, LD)} as={ADS(WP, LD)} pd={PDS(WP, LD)} ps={PDS(WP, LD)}
SYMBOL pmos4 1136 -64 M180
SYMATTR InstName M8
SYMATTR Value CMOSP
SYMATTR Value2 l={L} w={WP} ad={ADS(WP, LD)} as={ADS(WP, LD)} pd={PDS(WP, LD)} ps={PDS(WP, LD)}
TEXT 32 -80 Left 2 !.include "TSMC180.lib"
TEXT 32 -48 Left 2 !.func ADS(w, ld) = {w * ld}
TEXT 32 -16 Left 2 !.func PDS(w, ld) {w + 2*ld}
TEXT 32 16 Left 2 !.param WP = {WN * WPFACT * 2}
